IEEE/34Bus/ieee34-2_Losses.Txt

LOSSES REPORT

Power Delivery Element Loss Report

Element                  kW Losses    % of Power   kvar Losses

"Transformer.SUBXF"   0.00156,     0.00     0.00155851
"Line.L1"             3.45286,     0.17     0.526003
"Line.L2A"            1.15786,     0.06     0.178162
"Line.L2B"            1.10091,     0.06     0.138433
"Line.L3"            41.09215,     2.08     5.77432
"Line.L4A"            0.00025,      0.0     -0.814534
"Line.L4B"            0.00000,      0.0     -0.815027
"Line.L5"            47.21197,     2.46     7.64188
"Line.L6"            37.55259,     2.00     7.15754
"Line.L7"             0.01726,     0.00     0.00141521
"Line.L24"            0.53513,     0.03     0.0439444
"Line.L8"             0.01580,     0.01     -0.437069
"Line.L9A"            7.10663,     0.43     -0.111639
"Line.L9B"            7.06494,     0.43     -0.101508
"Line.L10A"           0.22587,     0.13     -6.13147
"Line.L10B"           0.14581,     0.11     -6.27243
"Line.L11A"           0.04264,     0.03     -1.78351
"Line.L11B"           0.00000,      0.0     -1.8712
"Line.L12A"           0.00084,      0.0     -0.412614
"Line.L12B"           0.00000,      0.0     -0.414347
"Line.L13A"           0.55104,     0.03     -0.0227217
"Line.L13B"           0.54824,     0.03     -0.0239422
"Line.L14A"          13.34570,     0.83     -0.515771
"Line.L14B"          13.23682,     0.84     -0.443629
"Line.L15"            0.63481,     0.04     -0.0387687
"Line.L16A"           1.25238,     0.12     -1.19329
"Line.L16B"           1.21595,     0.12     -1.20714
"Line.L29A"           1.44093,     0.14     -1.43368
"Line.L29B"           1.35809,     0.14     -1.47082
"Line.L18"            0.06390,     0.01     -0.174998
"Line.L19A"           0.00148,     0.00     -0.316175
"Line.L19B"           0.00026,      0.0     -0.316779
"Line.L21A"           0.15397,     0.03     -0.421825
"Line.L21B"           0.15231,     0.03     -0.422438
"Line.L22A"           0.15972,     0.12     -1.26332
"Line.L22B"           0.16373,     0.20     -1.26177
"Line.L23A"           0.02376,     0.03     -0.183784
"Line.L23B"           0.02431,     0.04     -0.183435
"Line.L26A"           0.00008,      0.0     -3.07863
"Line.L26B"           0.00001,      0.0     -3.07882
"Line.L27"           44.79971,     2.95     -2.08428
"Line.L25"            0.01054,     0.00     -0.00217366
"Transformer.XFM1"    9.61442,     2.11     20.6462
"Line.L28A"           0.00000,      0.0     -0.229853
"Line.L28B"           0.00000,      0.0     -0.229855
"Line.L17A"           0.10348,     0.03     -0.693338
"Line.L17B"           0.03922,     0.02     -0.725059
"Line.L30A"           0.02839,     0.02     -0.973407
"Line.L30B"           0.01078,     0.01     -0.98176
"Line.L20"            0.00044,      0.0     -0.20604
"Line.L31A"           0.00061,      0.0     -0.680479
"Line.L31B"           0.00000,      0.0     -0.68173
"Line.L32"           32.75853,     7.33     24.1575
"Capacitor.C844"      0.00000,      0.0     -318.735
"Capacitor.C848"      0.00000,      0.0     -478.299
"Transformer.REG1A"   0.00055,      0.0     0.0277025
"Transformer.REG1B"   0.00035,      0.0     0.017591
"Transformer.REG1C"   0.00032,      0.0     0.0160107
"Transformer.REG2A"   0.00024,      0.0     0.0122033
"Transformer.REG2B"   0.00027,      0.0     0.0133115
"Transformer.REG2C"   0.00028,      0.0     0.0137823

LINE LOSSES=                       258.8 kW
TRANSFORMER LOSSES=                  9.6 kW

TOTAL LOSSES=                      268.4 kW

TOTAL LOAD POWER =                1771.6 kW
Percent Losses for Circuit =     15.15 %
